
 Fire Dynamics Simulator

 Current Date     : June 24, 2025  18:08:11
 Revision         : FDS-6.9.1-0-g889da6a-release
 Revision Date    : Sun Apr 7 17:05:06 2024 -0400
 Compiler         : Intel(R) Fortran Intel(R) 64 Compiler Classic for applications running on Intel(R) 64, Version 2021.7.1 Build 20221019_000000
 Compilation Date : Apr 09, 2024 13:24:51

 Number of MPI Processes:  1

 MPI version: 3.1
 MPI library version: Intel(R) MPI Library 2021.6 for Linux* OS


 Job TITLE        : supply_exhaust_vents
 Job ID string    : supply_exhaust_vents


 Grid Dimensions, Mesh     1

   Cells in the X Direction            30
   Cells in the Y Direction            40
   Cells in the Z Direction            30
   Number of Grid Cells             36000


 Physical Dimensions, Mesh     1

   Length (m)                       3.000
   Width  (m)                       4.000
   Height (m)                       3.000

 Miscellaneous Parameters

   Total Number of Grid Cells       36000
   Maximum Cell Aspect Ratio        1.000
   Initial Time Step (s)            0.092
   CFL Velocity Norm                    2
   Simulation Start Time (s)          0.0
   Simulation End Time (s)           60.0
   Background Pressure (Pa)     101325.00
   Ambient Temperature (C)          20.00

   3D Cartesian
   VLES Calculation
   Eddy Viscosity Model:  Deardorff (C_DEARDORFF = 0.10)
   Surface INERT Eddy Viscosity Model:  WALE (C_WALE = 0.60)
   Surface fire1 Eddy Viscosity Model:  WALE (C_WALE = 0.60)
   Surface supply Eddy Viscosity Model:  WALE (C_WALE = 0.60)
   Surface exhaust Eddy Viscosity Model:  WALE (C_WALE = 0.60)
   Turbulent Prandtl Number:         0.50
   Turbulent Schmidt Number:         0.50


 Pressure solver information

   Solver:                            FFT
   Velocity tolerance (m/s):    5.000E-02
   Press eqn res tol (1/s^2):   2.000E+03
   Max pressure iterations:            10


 Background Stratification

      Z (m)     P_0 (Pa)    TMP_0 (C)
   ------------------------------------
        2.95    101290.42     20.00
        2.85    101291.59     20.00
        2.75    101292.77     20.00
        2.65    101293.93     20.00
        2.55    101295.11     20.00
        2.45    101296.28     20.00
        2.35    101297.45     20.00
        2.25    101298.62     20.00
        2.15    101299.80     20.00
        2.05    101300.96     20.00
        1.95    101302.14     20.00
        1.85    101303.31     20.00
        1.75    101304.48     20.00
        1.65    101305.65     20.00
        1.55    101306.83     20.00
        1.45    101308.00     20.00
        1.35    101309.17     20.00
        1.25    101310.34     20.00
        1.15    101311.51     20.00
        1.05    101312.69     20.00
        0.95    101313.86     20.00
        0.85    101315.03     20.00
        0.75    101316.20     20.00
        0.65    101317.38     20.00
        0.55    101318.54     20.00
        0.45    101319.72     20.00
        0.35    101320.89     20.00
        0.25    101322.06     20.00
        0.15    101323.23     20.00
        0.05    101324.41     20.00


 Mass Fraction Transformation Matrix to Convert Species Mixtures (Columns) to Primitive Species (Rows)

                         AIR       PROPANE   PRODUCTS
   NITROGEN              0.762470  0.000000  0.715513
   OXYGEN                0.230997  0.000000  0.000000
   CARBON DIOXIDE        0.000591  0.000000  0.173342
   WATER VAPOR           0.005941  0.000000  0.106218
   CARBON MONOXIDE       0.000000  0.000000  0.003079
   SOOT                  0.000000  0.000000  0.001848
   HYDROGEN              0.000000  0.000000  0.000000
   HYDROGEN CYANIDE      0.000000  0.000000  0.000000
   PROPANE               0.000000  1.000000  0.000000


 Primitive Species Information

   NITROGEN
   Gas Species
   Molecular Weight (g/mol)                28.01340
   Ambient Density (kg/m^3)                1.165
           Enthalpy of Formation (J/kg)  0.000E+00

   OXYGEN
   Gas Species
   Molecular Weight (g/mol)                31.99880
   Ambient Density (kg/m^3)                1.330
           Enthalpy of Formation (J/kg)  0.000E+00

   CARBON DIOXIDE
   Gas Species
   Molecular Weight (g/mol)                44.00950
   Ambient Density (kg/m^3)                1.830
           Enthalpy of Formation (J/kg) -8.941E+06

   WATER VAPOR
   Gas Species
   Molecular Weight (g/mol)                18.01528
   Ambient Density (kg/m^3)                0.749
           Enthalpy of Formation (J/kg) -1.342E+07

   CARBON MONOXIDE
   Gas Species
   Molecular Weight (g/mol)                28.01010
   Ambient Density (kg/m^3)                1.164
           Enthalpy of Formation (J/kg) -3.946E+06

   SOOT
   Gas Species
   Molecular Weight (g/mol)                12.01070
   Ambient Density (kg/m^3)                0.499
           Enthalpy of Formation (J/kg)  0.000E+00

   HYDROGEN
   Gas Species
   Molecular Weight (g/mol)                 2.01588
   Ambient Density (kg/m^3)                0.084
           Enthalpy of Formation (J/kg)  0.000E+00

   HYDROGEN CYANIDE
   Gas Species
   Molecular Weight (g/mol)                27.02534
   Ambient Density (kg/m^3)                1.123
           Enthalpy of Formation (J/kg)  4.924E+06

   PROPANE
   Gas Species
   Molecular Weight (g/mol)                44.09562
   Ambient Density (kg/m^3)                1.833
           Enthalpy of Formation (J/kg) -2.374E+06


 Tracked (Lumped) Species Information

   AIR
   Molecular Weight (g/mol)            28.75198
   Ambient Density (kg/m^3)            1.195
   Initial Mass Fraction               1.000
   Enthalpy of Formation (J/kg)     -8.504E+04

   Sub Species                    Mass Fraction     Mole Fraction
   NITROGEN                       7.624699E-01      7.825727E-01
   OXYGEN                         2.309974E-01      2.075588E-01
   CARBON DIOXIDE                 5.914650E-04      3.864118E-04
   WATER VAPOR                    5.941209E-03      9.482037E-03
 
     Viscosity (kg/m/s) Ambient,  293 K:  1.796E-05
                                  500 K:  2.612E-05
                                 1000 K:  4.125E-05
                                 1500 K:  5.371E-05
                                 2000 K:  6.476E-05
   Therm. Cond. (W/m/K) Ambient,  293 K:  2.556E-02
                                  500 K:  3.814E-02
                                 1000 K:  6.686E-02
                                 1500 K:  9.249E-02
                                 2000 K:  1.153E-01
        Enthalpy (J/kg) Ambient,  293 K: -9.012E+04
                                  500 K:  1.222E+05
                                 1000 K:  6.721E+05
                                 1500 K:  1.270E+06
                                 2000 K:  1.896E+06
    Spec. Heat (J/kg/K) Ambient,  293 K:  1.016E+03
                                  500 K:  1.042E+03
                                 1000 K:  1.156E+03
                                 1500 K:  1.229E+03
                                 2000 K:  1.270E+03
   Diff. Coeff. (m^2/s) Ambient,  293 K:  1.991E-05
                                  500 K:  4.961E-05
                                 1000 K:  1.580E-04
                                 1500 K:  3.095E-04
                                 2000 K:  4.984E-04
 Gibbs Energy Amb. (kJ/mol),  293 K: -5.873E+01
                                  500 K: -1.007E+02
                                 1000 K: -2.117E+02
                                 1500 K: -3.312E+02
                                 2000 K: -4.568E+02

   PROPANE
   Molecular Weight (g/mol)            44.09562
   Ambient Density (kg/m^3)            1.833
   Initial Mass Fraction               0.000
   Enthalpy of Formation (J/kg)     -2.374E+06

   Sub Species                    Mass Fraction     Mole Fraction
   PROPANE                        1.000000E+00      1.000000E+00
 
     Viscosity (kg/m/s) Ambient,  293 K:  8.079E-06
                                  500 K:  1.310E-05
                                 1000 K:  2.234E-05
                                 1500 K:  2.955E-05
                                 2000 K:  3.574E-05
   Therm. Cond. (W/m/K) Ambient,  293 K:  1.821E-02
                                  500 K:  4.581E-02
                                 1000 K:  1.212E-01
                                 1500 K:  1.890E-01
                                 2000 K:  2.465E-01
        Enthalpy (J/kg) Ambient,  293 K: -2.382E+06
                                  500 K: -1.946E+06
                                 1000 K: -2.769E+05
                                 1500 K:  1.900E+06
                                 2000 K:  4.336E+06
    Spec. Heat (J/kg/K) Ambient,  293 K:  1.646E+03
                                  500 K:  2.553E+03
                                 1000 K:  3.960E+03
                                 1500 K:  4.669E+03
                                 2000 K:  5.034E+03
   Diff. Coeff. (m^2/s) Ambient,  293 K:  1.110E-05
                                  500 K:  2.862E-05
                                 1000 K:  9.316E-05
                                 1500 K:  1.833E-04
                                 2000 K:  2.954E-04
 Gibbs Energy Amb. (kJ/mol),  293 K: -1.839E+02
                                  500 K: -2.447E+02
                                 1000 K: -4.295E+02
                                 1500 K: -6.584E+02
                                 2000 K: -9.217E+02

   PRODUCTS
   Molecular Weight (g/mol)            28.05811
   Ambient Density (kg/m^3)            1.166
   Initial Mass Fraction               0.000
   Enthalpy of Formation (J/kg)     -2.988E+06

   Sub Species                    Mass Fraction     Mole Fraction
   NITROGEN                       7.155130E-01      7.166551E-01
   CARBON DIOXIDE                 1.733421E-01      1.105137E-01
   WATER VAPOR                    1.062181E-01      1.654306E-01
   CARBON MONOXIDE                3.079264E-03      3.084543E-03
   SOOT                           1.847558E-03      4.316069E-03
   HYDROGEN CYANIDE               0.000000E+00      0.000000E+00
 
     Viscosity (kg/m/s) Ambient,  293 K:  1.611E-05
                                  500 K:  2.387E-05
                                 1000 K:  3.891E-05
                                 1500 K:  5.142E-05
                                 2000 K:  6.243E-05
   Therm. Cond. (W/m/K) Ambient,  293 K:  2.341E-02
                                  500 K:  3.618E-02
                                 1000 K:  6.714E-02
                                 1500 K:  9.636E-02
                                 2000 K:  1.226E-01
        Enthalpy (J/kg) Ambient,  293 K: -2.993E+06
                                  500 K: -2.762E+06
                                 1000 K: -2.151E+06
                                 1500 K: -1.472E+06
                                 2000 K: -7.516E+05
    Spec. Heat (J/kg/K) Ambient,  293 K:  1.092E+03
                                  500 K:  1.145E+03
                                 1000 K:  1.299E+03
                                 1500 K:  1.406E+03
                                 2000 K:  1.469E+03
   Diff. Coeff. (m^2/s) Ambient,  293 K:  1.955E-05
                                  500 K:  4.964E-05
                                 1000 K:  1.603E-04
                                 1500 K:  3.153E-04
                                 2000 K:  5.086E-04
 Gibbs Energy Amb. (kJ/mol),  293 K: -1.513E+02
                                  500 K: -1.934E+02
                                 1000 K: -3.057E+02
                                 1500 K: -4.275E+02
                                 2000 K: -5.562E+02


 Gas Phase Reaction Information

      Fuel                                           Heat of Combustion (kJ/kg)
      PROPANE                                                        44846.5961
      EPUMO2:                                                        12741.0299

      Primitive Species Stoich. Coeff.
      Species ID                                                          Molar
      OXYGEN                                                          -4.850502
      CARBON DIOXIDE                                                   2.811145
      WATER VAPOR                                                      4.000000
      CARBON MONOXIDE                                                  0.078714
      SOOT                                                             0.110141
      PROPANE                                                         -1.000000

      Tracked (Lumped) Species Stoich. Coeff.
      Species ID                                             Molar         Mass
      AIR                                               -23.369290   -15.237646
      PROPANE                                            -1.000000    -1.000000
      PRODUCTS                                           25.518788    16.237646

      Reaction Kinetics

      Fast chemistry

      ODE Solver:  EXPLICIT EULER

      Extinction Model:  EXTINCTION 1
      Auto-Ignition Temperature (C):            -273.1
      Critical Flame Temperature (C):           1447.0

      Prescribed Radiative Fraction:             0.290


 Material Information


 Surface Conditions

   0 INERT (DEFAULT)

   1 fire1
     HRR Per Unit Area (kW/m2)        150.0
     PROPANE Mass Flux (kg/s/m2)   3.345E-03

   2 supply
     Volume Flow     (m^3/s)    -3.000E+00
     AIR Mass Fraction         1.000

   3 exhaust
     Volume Flow     (m^3/s)     3.000E+00
     AIR Mass Fraction         1.000

   4 OPEN
     Passive Vent to Atmosphere

   5 MIRROR
     Symmetry Plane

   6 INTERPOLATED

   7 PERIODIC

   8 HVAC

   9 MASSLESS TRACER

  10 DROPLET

  11 MASSLESS TARGET

  12 PERIODIC FLOW ONLY


 Lagrangian Particle Classes


 Cut-off Density and Temperature

    Minimum Temperature:  -259.1 C
    Maximum Temperature:  2726.8 C
    Minimum Density:  1.195E-01 kg/m3
    Maximum Density:  7.677E+01 kg/m3


 Device Information

   1 ID: timer
     QUANTITY: TIME
     Coordinates (X,Y,Z):    1.000000E+00    1.000000E+00    1.000000E+00
     TEMPORAL STATISTIC: TIME AVERAGE
   2 ID: flow_volume_supply
     QUANTITY: U-VELOCITY
     Coordinates (X,Y,Z):    1.000000E-03    2.000000E+00    4.000000E-01
     SPATIAL STATISTIC: AREA INTEGRAL
     TEMPORAL STATISTIC: TIME AVERAGE
   3 ID: flow_volume_exhaust
     QUANTITY: U-VELOCITY
     Coordinates (X,Y,Z):    2.999000E+00    2.000000E+00    2.800000E+00
     SPATIAL STATISTIC: AREA INTEGRAL
     TEMPORAL STATISTIC: TIME AVERAGE
   4 ID: eye_level_visibility
     QUANTITY: VISIBILITY
     Species ID: SOOT
     Coordinates (X,Y,Z):    1.500000E+00    1.000000E-03    1.500000E+00
     TEMPORAL STATISTIC: TIME AVERAGE
   5 ID: air_temperature
     QUANTITY: TEMPERATURE
     Coordinates (X,Y,Z):    1.500000E+00    1.000000E-03    1.500000E+00
     TEMPORAL STATISTIC: TIME AVERAGE


 Slice File Information, Mesh     1

   1 Nodes:   0  30  20  20   0  30, Quantity: VELOCITY
   2 Nodes:   0  30  20  20   0  30, Quantity: U-VELOCITY
   3 Nodes:   0  30  20  20   0  30, Quantity: V-VELOCITY
   4 Nodes:   0  30  20  20   0  30, Quantity: W-VELOCITY
   5 Nodes:   0  30  20  20   0  30, Quantity: TEMPERATURE


 Radiation Model Information

   Number of control angles  104
   Time step increment         3
   Angle increment             5
   Theta band N_phi   Solid angle
     1:        4     0.120
     2:       12     0.114
     3:       16     0.127
     4:       20     0.120
     5:       20     0.120
     6:       16     0.127
     7:       12     0.114
     8:        4     0.120
   Using gray gas absorption.
   Mean beam length  1.000E-01 m


 Pressure Zone Information

   1 Volume: 3.5920E+01 m3, Cells: 35920, Mesh: 1, Indices: (30,40,30)
 
 

 Run Time Diagnostics

       Time Step        1   June 24, 2025  18:08:11
       Step Size:    0.922E-01 s, Total Time:      0.092 s
       Pressure Iterations: 1
       Maximum Velocity Error:  0.15E-02 on Mesh 1 at (17,18,1)
       Maximum Pressure Error:  0.29E-05 on Mesh 1 at (13,21,2)
       ---------------------------------------------------------------
       Max CFL number:  0.24E-01 at (13,18,4)
       Max divergence: -0.25E-05 at (20,33,2)
       Min divergence: -0.87E-03 at (13,21,2)
       Max VN number:   0.23E-01 at (18,19,5)
 
       Time Step        2   June 24, 2025  18:08:11
       Step Size:    0.922E-01 s, Total Time:       0.18 s
       Pressure Iterations: 1
       Maximum Velocity Error:  0.50E-02 on Mesh 1 at (14,22,5)
       Maximum Pressure Error:  0.84E-02 on Mesh 1 at (17,23,5)
       ---------------------------------------------------------------
       Max CFL number:  0.23E-01 at (22,11,21)
       Max divergence:  0.34E+00 at (17,18,1)
       Min divergence: -0.75E-03 at (19,30,29)
       Max VN number:   0.23E-01 at (30,22,4)
       Total Heat Release Rate:              9.399 kW
 
       Time Step        3   June 24, 2025  18:08:11
       Step Size:    0.922E-01 s, Total Time:       0.28 s
       Pressure Iterations: 1
       Maximum Velocity Error:  0.14E-01 on Mesh 1 at (14,22,5)
       Maximum Pressure Error:  0.64E+00 on Mesh 1 at (14,19,6)
       ---------------------------------------------------------------
       Max CFL number:  0.60E-01 at (18,21,5)
       Max divergence:  0.12E+01 at (14,22,6)
       Min divergence: -0.15E-02 at (19,30,29)
       Max VN number:   0.23E-01 at (30,22,4)
       Total Heat Release Rate:             20.563 kW
       Radiation Loss to Boundaries:        -1.028 kW
 
       Time Step        4   June 24, 2025  18:08:11
       Step Size:    0.922E-01 s, Total Time:       0.37 s
       Pressure Iterations: 1
       Maximum Velocity Error:  0.48E-01 on Mesh 1 at (17,20,5)
       Maximum Pressure Error:  0.83E+01 on Mesh 1 at (18,22,1)
       ---------------------------------------------------------------
       Max CFL number:  0.18E+00 at (14,22,6)
       Max divergence:  0.24E+01 at (15,23,1)
       Min divergence: -0.26E-02 at (19,30,29)
       Max VN number:   0.25E-01 at (20,31,1)
       Total Heat Release Rate:             35.841 kW
       Radiation Loss to Boundaries:        -2.236 kW
 
       Time Step        5   June 24, 2025  18:08:11
       Step Size:    0.922E-01 s, Total Time:       0.46 s
       Pressure Iterations: 3
       Maximum Velocity Error:  0.35E-01 on Mesh 1 at (16,21,5)
       Maximum Pressure Error:  0.67E+02 on Mesh 1 at (15,23,1)
       ---------------------------------------------------------------
       Max CFL number:  0.33E+00 at (15,23,1)
       Max divergence:  0.64E+01 at (16,21,6)
       Min divergence: -0.58E-01 at (18,20,4)
       Max VN number:   0.75E-01 at (13,18,1)
       Total Heat Release Rate:             52.058 kW
       Radiation Loss to Boundaries:        -4.110 kW
 
       Time Step        6   June 24, 2025  18:08:11
       Step Size:    0.922E-01 s, Total Time:       0.55 s
       Pressure Iterations: 3
       Maximum Velocity Error:  0.49E-01 on Mesh 1 at (16,21,5)
       Maximum Pressure Error:  0.29E+03 on Mesh 1 at (16,21,6)
       ---------------------------------------------------------------
       Max CFL number:  0.79E+00 at (16,21,6)
       Max divergence:  0.30E+01 at (18,20,1)
       Min divergence: -0.23E+00 at (17,21,6)
       Max VN number:   0.25E+00 at (16,21,6)
       Total Heat Release Rate:             59.104 kW
       Radiation Loss to Boundaries:       -15.938 kW
 
       Time Step        7   June 24, 2025  18:08:11
       Step Size:    0.922E-01 s, Total Time:       0.65 s
       Pressure Iterations: 3
       Maximum Velocity Error:  0.24E-01 on Mesh 1 at (15,21,5)
       Maximum Pressure Error:  0.19E+03 on Mesh 1 at (18,20,1)
       ---------------------------------------------------------------
       Max CFL number:  0.68E+00 at (18,20,3)
       Max divergence:  0.34E+01 at (15,21,6)
       Min divergence: -0.58E-01 at (13,20,5)
       Max VN number:   0.99E-01 at (15,23,1)
       Total Heat Release Rate:             62.290 kW
       Radiation Loss to Boundaries:       -22.768 kW
 
       Time Step        8   June 24, 2025  18:08:12
       Step Size:    0.782E-01 s, Total Time:       0.72 s
       Pressure Iterations: 3
       Maximum Velocity Error:  0.29E-01 on Mesh 1 at (16,21,5)
       Maximum Pressure Error:  0.90E+02 on Mesh 1 at (18,20,1)
       ---------------------------------------------------------------
       Max CFL number:  0.85E+00 at (17,18,3)
       Max divergence:  0.28E+01 at (18,19,3)
       Min divergence: -0.31E+01 at (15,20,6)
       Max VN number:   0.11E+00 at (14,22,7)
       Total Heat Release Rate:             78.690 kW
       Radiation Loss to Boundaries:       -33.416 kW
 
       Time Step        9   June 24, 2025  18:08:12
       Step Size:    0.594E-01 s, Total Time:       0.78 s
       Pressure Iterations: 3
       Maximum Velocity Error:  0.24E-01 on Mesh 1 at (16,21,5)
       Maximum Pressure Error:  0.10E+03 on Mesh 1 at (15,20,6)
       ---------------------------------------------------------------
       Max CFL number:  0.84E+00 at (17,18,5)
       Max divergence:  0.22E+01 at (17,18,3)
       Min divergence: -0.43E-02 at (30,1,30)
       Max VN number:   0.17E+00 at (17,18,6)
       Total Heat Release Rate:             84.990 kW
       Radiation Loss to Boundaries:       -29.236 kW
 
       Time Step       10   June 24, 2025  18:08:12
       Step Size:    0.490E-01 s, Total Time:       0.83 s
       Pressure Iterations: 2
       Maximum Velocity Error:  0.29E-01 on Mesh 1 at (17,18,3)
       Maximum Pressure Error:  0.31E+02 on Mesh 1 at (18,21,3)
       ---------------------------------------------------------------
       Max CFL number:  0.87E+00 at (17,18,4)
       Max divergence:  0.28E+01 at (18,19,4)
       Min divergence: -0.78E-01 at (17,18,4)
       Max VN number:   0.24E+00 at (17,18,6)
       Total Heat Release Rate:             95.936 kW
       Radiation Loss to Boundaries:       -33.826 kW
 
       Time Step       20   June 24, 2025  18:08:13
       Step Size:    0.257E-01 s, Total Time:       1.16 s
       Pressure Iterations: 1
       Maximum Velocity Error:  0.30E-01 on Mesh 1 at (14,19,5)
       Maximum Pressure Error:  0.46E+02 on Mesh 1 at (15,22,6)
       ---------------------------------------------------------------
       Max CFL number:  0.96E+00 at (15,18,7)
       Max divergence:  0.22E+01 at (15,23,6)
       Min divergence: -0.51E+00 at (17,18,10)
       Max VN number:   0.33E+00 at (15,18,7)
       Total Heat Release Rate:            128.482 kW
       Radiation Loss to Boundaries:       -40.564 kW
 
       Time Step       30   June 24, 2025  18:08:13
       Step Size:    0.220E-01 s, Total Time:       1.39 s
       Pressure Iterations: 1
       Maximum Velocity Error:  0.32E-01 on Mesh 1 at (14,20,5)
       Maximum Pressure Error:  0.61E+02 on Mesh 1 at (15,18,13)
       ---------------------------------------------------------------
       Max CFL number:  0.91E+00 at (16,18,11)
       Max divergence:  0.24E+01 at (15,18,6)
       Min divergence: -0.97E+00 at (15,18,13)
       Max VN number:   0.30E+00 at (15,18,12)
       Total Heat Release Rate:            127.086 kW
       Radiation Loss to Boundaries:       -27.114 kW
 
       Time Step       40   June 24, 2025  18:08:14
       Step Size:    0.198E-01 s, Total Time:       1.60 s
       Pressure Iterations: 2
       Maximum Velocity Error:  0.14E-01 on Mesh 1 at (14,22,4)
       Maximum Pressure Error:  0.12E+03 on Mesh 1 at (16,21,14)
       ---------------------------------------------------------------
       Max CFL number:  0.97E+00 at (15,20,12)
       Max divergence:  0.18E+01 at (18,20,6)
       Min divergence: -0.89E+00 at (15,19,13)
       Max VN number:   0.23E+00 at (17,19,13)
       Total Heat Release Rate:            131.319 kW
       Radiation Loss to Boundaries:       -32.451 kW
 
       Time Step       50   June 24, 2025  18:08:15
       Step Size:    0.174E-01 s, Total Time:       1.79 s
       Pressure Iterations: 1
       Maximum Velocity Error:  0.46E-01 on Mesh 1 at (17,22,4)
       Maximum Pressure Error:  0.18E+03 on Mesh 1 at (16,21,18)
       ---------------------------------------------------------------
       Max CFL number:  0.88E+00 at (16,21,18)
       Max divergence:  0.25E+01 at (14,23,4)
       Min divergence: -0.12E+01 at (16,21,17)
       Max VN number:   0.27E+00 at (16,21,17)
       Total Heat Release Rate:            134.912 kW
       Radiation Loss to Boundaries:       -34.870 kW
 
       Time Step       60   June 24, 2025  18:08:16
       Step Size:    0.149E-01 s, Total Time:       1.96 s
       Pressure Iterations: 1
       Maximum Velocity Error:  0.43E-01 on Mesh 1 at (13,22,4)
       Maximum Pressure Error:  0.11E+03 on Mesh 1 at (16,21,23)
       ---------------------------------------------------------------
       Max CFL number:  0.88E+00 at (15,20,15)
       Max divergence:  0.28E+01 at (14,23,4)
       Min divergence: -0.15E+01 at (16,21,22)
       Max VN number:   0.30E+00 at (14,19,17)
       Total Heat Release Rate:            140.477 kW
       Radiation Loss to Boundaries:       -34.251 kW
 
       Time Step       70   June 24, 2025  18:08:17
       Step Size:    0.149E-01 s, Total Time:       2.11 s
       Pressure Iterations: 1
       Maximum Velocity Error:  0.35E-01 on Mesh 1 at (13,22,4)
       Maximum Pressure Error:  0.92E+02 on Mesh 1 at (16,20,26)
       ---------------------------------------------------------------
       Max CFL number:  0.88E+00 at (15,21,18)
       Max divergence:  0.24E+01 at (14,18,4)
       Min divergence: -0.14E+01 at (16,21,26)
       Max VN number:   0.28E+00 at (16,21,26)
       Total Heat Release Rate:            139.739 kW
       Radiation Loss to Boundaries:       -34.465 kW
 
       Time Step       80   June 24, 2025  18:08:17
       Step Size:    0.131E-01 s, Total Time:       2.25 s
       Pressure Iterations: 1
       Maximum Velocity Error:  0.37E-02 on Mesh 1 at (14,20,5)
       Maximum Pressure Error:  0.14E+03 on Mesh 1 at (16,20,30)
       ---------------------------------------------------------------
       Max CFL number:  0.87E+00 at (15,20,21)
       Max divergence:  0.24E+01 at (16,23,6)
       Min divergence: -0.13E+01 at (16,21,15)
       Max VN number:   0.23E+00 at (15,20,27)
       Total Heat Release Rate:            141.425 kW
       Radiation Loss to Boundaries:       -34.528 kW
 
       Time Step       90   June 24, 2025  18:08:18
       Step Size:    0.131E-01 s, Total Time:       2.38 s
       Pressure Iterations: 1
       Maximum Velocity Error:  0.37E-02 on Mesh 1 at (14,20,5)
       Maximum Pressure Error:  0.11E+03 on Mesh 1 at (15,20,30)
       ---------------------------------------------------------------
       Max CFL number:  0.90E+00 at (15,20,20)
       Max divergence:  0.26E+01 at (13,20,6)
       Min divergence: -0.12E+01 at (16,21,20)
       Max VN number:   0.42E+00 at (14,19,30)
       Total Heat Release Rate:            141.011 kW
       Radiation Loss to Boundaries:       -34.143 kW
 
       Time Step      100   June 24, 2025  18:08:19
       Step Size:    0.117E-01 s, Total Time:       2.51 s
       Pressure Iterations: 1
       Maximum Velocity Error:  0.20E-02 on Mesh 1 at (15,18,5)
       Maximum Pressure Error:  0.12E+03 on Mesh 1 at (20,25,30)
       ---------------------------------------------------------------
       Max CFL number:  0.89E+00 at (15,20,20)
       Max divergence:  0.26E+01 at (16,23,6)
       Min divergence: -0.11E+01 at (16,21,11)
       Max VN number:   0.42E+00 at (12,23,30)
       Total Heat Release Rate:            142.384 kW
       Radiation Loss to Boundaries:       -34.438 kW
 
       Time Step      200   June 24, 2025  18:08:26
       Step Size:    0.141E-01 s, Total Time:       3.84 s
       Pressure Iterations: 1
       Maximum Velocity Error:  0.21E-02 on Mesh 1 at (17,19,5)
       Maximum Pressure Error:  0.91E+02 on Mesh 1 at (15,30,30)
       ---------------------------------------------------------------
       Max CFL number:  0.90E+00 at (16,21,22)
       Max divergence:  0.25E+01 at (13,21,6)
       Min divergence: -0.12E+01 at (16,20,11)
       Max VN number:   0.70E+00 at (16,14,30)
       Total Heat Release Rate:            143.767 kW
       Radiation Loss to Boundaries:       -34.630 kW
 
       Time Step      300   June 24, 2025  18:08:34
       Step Size:    0.141E-01 s, Total Time:       5.26 s
       Pressure Iterations: 1
       Maximum Velocity Error:  0.73E-02 on Mesh 1 at (16,20,5)
       Maximum Pressure Error:  0.18E+03 on Mesh 1 at (16,21,30)
       ---------------------------------------------------------------
       Max CFL number:  0.96E+00 at (17,21,27)
       Max divergence:  0.24E+01 at (15,23,6)
       Min divergence: -0.12E+01 at (16,20,8)
       Max VN number:   0.45E+00 at (1,28,20)
       Total Heat Release Rate:            143.470 kW
       Radiation Loss to Boundaries:       -35.509 kW
 
       Time Step      400   June 24, 2025  18:08:42
       Step Size:    0.132E-01 s, Total Time:       6.76 s
       Pressure Iterations: 1
       Maximum Velocity Error:  0.40E-02 on Mesh 1 at (15,18,5)
       Maximum Pressure Error:  0.16E+03 on Mesh 1 at (16,19,30)
       ---------------------------------------------------------------
       Max CFL number:  0.88E+00 at (15,19,27)
       Max divergence:  0.25E+01 at (18,20,6)
       Min divergence: -0.11E+01 at (16,20,10)
       Max VN number:   0.33E+00 at (29,9,30)
       Total Heat Release Rate:            144.761 kW
       Radiation Loss to Boundaries:       -35.949 kW
 
       Time Step      500   June 24, 2025  18:08:50
       Step Size:    0.143E-01 s, Total Time:       8.14 s
       Pressure Iterations: 1
       Maximum Velocity Error:  0.45E-02 on Mesh 1 at (17,22,5)
       Maximum Pressure Error:  0.15E+03 on Mesh 1 at (16,20,30)
       ---------------------------------------------------------------
       Max CFL number:  0.85E+00 at (15,21,26)
       Max divergence:  0.26E+01 at (16,23,6)
       Min divergence: -0.13E+01 at (16,21,10)
       Max VN number:   0.61E+00 at (4,32,30)
       Total Heat Release Rate:            141.401 kW
       Radiation Loss to Boundaries:       -34.843 kW
 
       Time Step      600   June 24, 2025  18:08:58
       Step Size:    0.139E-01 s, Total Time:       9.60 s
       Pressure Iterations: 1
       Maximum Velocity Error:  0.54E-02 on Mesh 1 at (14,21,5)
       Maximum Pressure Error:  0.88E+02 on Mesh 1 at (14,20,30)
       ---------------------------------------------------------------
       Max CFL number:  0.85E+00 at (16,20,25)
       Max divergence:  0.25E+01 at (13,20,6)
       Min divergence: -0.11E+01 at (16,20,19)
       Max VN number:   0.41E+00 at (16,39,30)
       Total Heat Release Rate:            145.012 kW
       Radiation Loss to Boundaries:       -37.698 kW
 
       Time Step      700   June 24, 2025  18:09:06
       Step Size:    0.145E-01 s, Total Time:      11.05 s
       Pressure Iterations: 1
       Maximum Velocity Error:  0.37E-02 on Mesh 1 at (13,21,5)
       Maximum Pressure Error:  0.12E+03 on Mesh 1 at (13,22,30)
       ---------------------------------------------------------------
       Max CFL number:  0.88E+00 at (14,21,24)
       Max divergence:  0.23E+01 at (16,23,6)
       Min divergence: -0.93E+00 at (16,20,19)
       Max VN number:   0.42E+00 at (22,1,19)
       Total Heat Release Rate:            143.891 kW
       Radiation Loss to Boundaries:       -38.368 kW
 
       Time Step      800   June 24, 2025  18:09:14
       Step Size:    0.144E-01 s, Total Time:      12.49 s
       Pressure Iterations: 1
       Maximum Velocity Error:  0.72E-02 on Mesh 1 at (15,22,5)
       Maximum Pressure Error:  0.18E+03 on Mesh 1 at (14,19,30)
       ---------------------------------------------------------------
       Max CFL number:  0.90E+00 at (16,20,26)
       Max divergence:  0.24E+01 at (16,18,6)
       Min divergence: -0.12E+01 at (16,20,10)
       Max VN number:   0.49E+00 at (15,9,30)
       Total Heat Release Rate:            142.641 kW
       Radiation Loss to Boundaries:       -37.855 kW
 
       Time Step      900   June 24, 2025  18:09:22
       Step Size:    0.150E-01 s, Total Time:      14.01 s
       Pressure Iterations: 1
       Maximum Velocity Error:  0.47E-02 on Mesh 1 at (14,19,5)
       Maximum Pressure Error:  0.91E+02 on Mesh 1 at (16,22,25)
       ---------------------------------------------------------------
       Max CFL number:  0.86E+00 at (15,20,26)
       Max divergence:  0.25E+01 at (13,20,6)
       Min divergence: -0.13E+01 at (16,22,25)
       Max VN number:   0.53E+00 at (9,20,30)
       Total Heat Release Rate:            143.246 kW
       Radiation Loss to Boundaries:       -38.475 kW
 
       Time Step     1000   June 24, 2025  18:09:30
       Step Size:    0.147E-01 s, Total Time:      15.48 s
       Pressure Iterations: 1
       Maximum Velocity Error:  0.68E-02 on Mesh 1 at (15,18,5)
       Maximum Pressure Error:  0.81E+02 on Mesh 1 at (16,22,30)
       ---------------------------------------------------------------
       Max CFL number:  0.81E+00 at (16,20,23)
       Max divergence:  0.26E+01 at (13,19,5)
       Min divergence: -0.11E+01 at (15,20,11)
       Max VN number:   0.43E+00 at (1,39,24)
       Total Heat Release Rate:            144.204 kW
       Radiation Loss to Boundaries:       -39.023 kW
 
       Time Step     1100   June 24, 2025  18:09:38
       Step Size:    0.159E-01 s, Total Time:      17.06 s
       Pressure Iterations: 1
       Maximum Velocity Error:  0.90E-02 on Mesh 1 at (13,22,5)
       Maximum Pressure Error:  0.96E+02 on Mesh 1 at (17,21,22)
       ---------------------------------------------------------------
       Max CFL number:  0.91E+00 at (17,21,22)
       Max divergence:  0.21E+01 at (15,18,6)
       Min divergence: -0.92E+00 at (16,20,18)
       Max VN number:   0.54E+00 at (2,39,30)
       Total Heat Release Rate:            143.971 kW
       Radiation Loss to Boundaries:       -40.208 kW
 
       Time Step     1200   June 24, 2025  18:09:46
       Step Size:    0.158E-01 s, Total Time:      18.62 s
       Pressure Iterations: 1
       Maximum Velocity Error:  0.29E-01 on Mesh 1 at (17,21,5)
       Maximum Pressure Error:  0.99E+02 on Mesh 1 at (13,19,30)
       ---------------------------------------------------------------
       Max CFL number:  0.89E+00 at (16,21,20)
       Max divergence:  0.25E+01 at (17,21,6)
       Min divergence: -0.10E+01 at (16,21,19)
       Max VN number:   0.61E+00 at (3,26,30)
       Total Heat Release Rate:            145.574 kW
       Radiation Loss to Boundaries:       -40.994 kW
 
       Time Step     1300   June 24, 2025  18:09:54
       Step Size:    0.158E-01 s, Total Time:      20.19 s
       Pressure Iterations: 1
       Maximum Velocity Error:  0.49E-02 on Mesh 1 at (14,21,5)
       Maximum Pressure Error:  0.97E+02 on Mesh 1 at (16,32,30)
       ---------------------------------------------------------------
       Max CFL number:  0.81E+00 at (17,21,27)
       Max divergence:  0.22E+01 at (13,21,6)
       Min divergence: -0.92E+00 at (16,20,10)
       Max VN number:   0.47E+00 at (28,22,30)
       Total Heat Release Rate:            143.090 kW
       Radiation Loss to Boundaries:       -41.288 kW
 
       Time Step     1400   June 24, 2025  18:10:02
       Step Size:    0.109E-01 s, Total Time:      21.53 s
       Pressure Iterations: 1
       Maximum Velocity Error:  0.26E-02 on Mesh 1 at (16,18,4)
       Maximum Pressure Error:  0.52E+02 on Mesh 1 at (18,20,30)
       ---------------------------------------------------------------
       Max CFL number:  0.98E+00 at (30,17,27)
       Max divergence:  0.28E+01 at (14,18,3)
       Min divergence: -0.11E+01 at (17,21,9)
       Max VN number:   0.42E+00 at (13,32,30)
       Total Heat Release Rate:            145.468 kW
       Radiation Loss to Boundaries:       -41.731 kW
 
       Time Step     1500   June 24, 2025  18:10:10
       Step Size:    0.978E-02 s, Total Time:      22.52 s
       Pressure Iterations: 1
       Maximum Velocity Error:  0.18E-02 on Mesh 1 at (17,19,3)
       Maximum Pressure Error:  0.46E+02 on Mesh 1 at (20,22,30)
       ---------------------------------------------------------------
       Max CFL number:  0.95E+00 at (30,25,27)
       Max divergence:  0.24E+01 at (14,23,1)
       Min divergence: -0.92E+00 at (19,22,10)
       Max VN number:   0.42E+00 at (19,22,1)
       Total Heat Release Rate:            139.773 kW
       Radiation Loss to Boundaries:       -41.133 kW
 
       Time Step     1600   June 24, 2025  18:10:18
       Step Size:    0.978E-02 s, Total Time:      23.50 s
       Pressure Iterations: 1
       Maximum Velocity Error:  0.34E-02 on Mesh 1 at (13,22,1)
       Maximum Pressure Error:  0.85E+01 on Mesh 1 at (27,17,30)
       ---------------------------------------------------------------
       Max CFL number:  0.99E+00 at (30,16,27)
       Max divergence:  0.19E+01 at (16,18,5)
       Min divergence: -0.88E+00 at (20,22,1)
       Max VN number:   0.66E+00 at (19,22,1)
       Total Heat Release Rate:            144.360 kW
       Radiation Loss to Boundaries:       -40.604 kW
 
       Time Step     1700   June 24, 2025  18:10:26
       Step Size:    0.881E-02 s, Total Time:      24.39 s
       Pressure Iterations: 1
       Maximum Velocity Error:  0.32E-02 on Mesh 1 at (17,18,3)
       Maximum Pressure Error:  0.11E+02 on Mesh 1 at (19,18,1)
       ---------------------------------------------------------------
       Max CFL number:  0.90E+00 at (30,16,27)
       Max divergence:  0.24E+01 at (14,23,3)
       Min divergence: -0.89E+00 at (20,22,7)
       Max VN number:   0.56E+00 at (19,22,1)
       Total Heat Release Rate:            140.585 kW
       Radiation Loss to Boundaries:       -38.560 kW
 
       Time Step     1800   June 24, 2025  18:10:34
       Step Size:    0.881E-02 s, Total Time:      25.27 s
       Pressure Iterations: 1
       Maximum Velocity Error:  0.40E-02 on Mesh 1 at (17,20,2)
       Maximum Pressure Error:  0.13E+02 on Mesh 1 at (19,23,1)
       ---------------------------------------------------------------
       Max CFL number:  0.89E+00 at (30,18,27)
       Max divergence:  0.39E+01 at (15,23,2)
       Min divergence: -0.46E+00 at (21,22,8)
       Max VN number:   0.63E+00 at (19,21,1)
       Total Heat Release Rate:            144.873 kW
       Radiation Loss to Boundaries:       -40.608 kW
 
       Time Step     1900   June 24, 2025  18:10:42
       Step Size:    0.881E-02 s, Total Time:      26.15 s
       Pressure Iterations: 1
       Maximum Velocity Error:  0.51E-02 on Mesh 1 at (17,20,3)
       Maximum Pressure Error:  0.15E+02 on Mesh 1 at (18,19,1)
       ---------------------------------------------------------------
       Max CFL number:  0.89E+00 at (30,25,27)
       Max divergence:  0.35E+01 at (17,23,5)
       Min divergence: -0.86E+00 at (16,21,8)
       Max VN number:   0.66E+00 at (21,21,1)
       Total Heat Release Rate:            145.040 kW
       Radiation Loss to Boundaries:       -39.922 kW
 
       Time Step     2000   June 24, 2025  18:10:50
       Step Size:    0.881E-02 s, Total Time:      27.03 s
       Pressure Iterations: 1
       Maximum Velocity Error:  0.81E-02 on Mesh 1 at (17,19,3)
       Maximum Pressure Error:  0.19E+02 on Mesh 1 at (25,17,30)
       ---------------------------------------------------------------
       Max CFL number:  0.89E+00 at (30,21,27)
       Max divergence:  0.28E+01 at (18,19,3)
       Min divergence: -0.94E+00 at (19,20,1)
       Max VN number:   0.49E+00 at (22,22,1)
       Total Heat Release Rate:            145.357 kW
       Radiation Loss to Boundaries:       -39.537 kW
 
       Time Step     2100   June 24, 2025  18:10:58
       Step Size:    0.881E-02 s, Total Time:      27.91 s
       Pressure Iterations: 1
       Maximum Velocity Error:  0.93E-02 on Mesh 1 at (17,22,5)
       Maximum Pressure Error:  0.23E+02 on Mesh 1 at (16,23,1)
       ---------------------------------------------------------------
       Max CFL number:  0.94E+00 at (30,20,27)
       Max divergence:  0.29E+01 at (14,23,1)
       Min divergence: -0.81E+00 at (16,24,2)
       Max VN number:   0.52E+00 at (19,20,1)
       Total Heat Release Rate:            143.405 kW
       Radiation Loss to Boundaries:       -39.442 kW
 
       Time Step     2200   June 24, 2025  18:11:06
       Step Size:    0.881E-02 s, Total Time:      28.79 s
       Pressure Iterations: 1
       Maximum Velocity Error:  0.62E-02 on Mesh 1 at (17,22,2)
       Maximum Pressure Error:  0.38E+02 on Mesh 1 at (19,23,1)
       ---------------------------------------------------------------
       Max CFL number:  0.89E+00 at (30,24,27)
       Max divergence:  0.29E+01 at (14,18,1)
       Min divergence: -0.78E+00 at (20,22,1)
       Max VN number:   0.33E+00 at (25,25,1)
       Total Heat Release Rate:            143.097 kW
       Radiation Loss to Boundaries:       -39.379 kW
 
       Time Step     2300   June 24, 2025  18:11:14
       Step Size:    0.881E-02 s, Total Time:      29.67 s
       Pressure Iterations: 1
       Maximum Velocity Error:  0.69E-02 on Mesh 1 at (17,22,1)
       Maximum Pressure Error:  0.25E+02 on Mesh 1 at (17,23,1)
       ---------------------------------------------------------------
       Max CFL number:  0.91E+00 at (30,21,27)
       Max divergence:  0.40E+01 at (18,22,1)
       Min divergence: -0.10E+01 at (19,20,1)
       Max VN number:   0.60E+00 at (19,20,1)
       Total Heat Release Rate:            141.403 kW
       Radiation Loss to Boundaries:       -35.998 kW
 
       Time Step     2400   June 24, 2025  18:11:21
       Step Size:    0.881E-02 s, Total Time:      30.55 s
       Pressure Iterations: 1
       Maximum Velocity Error:  0.17E-01 on Mesh 1 at (17,21,3)
       Maximum Pressure Error:  0.22E+02 on Mesh 1 at (30,21,30)
       ---------------------------------------------------------------
       Max CFL number:  0.90E+00 at (30,23,27)
       Max divergence:  0.25E+01 at (16,18,1)
       Min divergence: -0.82E+00 at (18,23,10)
       Max VN number:   0.58E+00 at (30,21,29)
       Total Heat Release Rate:            143.729 kW
       Radiation Loss to Boundaries:       -37.200 kW
 
       Time Step     2500   June 24, 2025  18:11:29
       Step Size:    0.881E-02 s, Total Time:      31.43 s
       Pressure Iterations: 1
       Maximum Velocity Error:  0.60E-02 on Mesh 1 at (17,20,2)
       Maximum Pressure Error:  0.12E+02 on Mesh 1 at (30,26,30)
       ---------------------------------------------------------------
       Max CFL number:  0.91E+00 at (30,19,27)
       Max divergence:  0.25E+01 at (17,19,6)
       Min divergence: -0.69E+00 at (20,22,1)
       Max VN number:   0.48E+00 at (19,22,1)
       Total Heat Release Rate:            144.014 kW
       Radiation Loss to Boundaries:       -37.612 kW
 
       Time Step     2600   June 24, 2025  18:11:38
       Step Size:    0.881E-02 s, Total Time:      32.32 s
       Pressure Iterations: 1
       Maximum Velocity Error:  0.43E-01 on Mesh 1 at (16,18,3)
       Maximum Pressure Error:  0.75E+02 on Mesh 1 at (16,18,2)
       ---------------------------------------------------------------
       Max CFL number:  0.93E+00 at (30,22,27)
       Max divergence:  0.22E+01 at (15,18,1)
       Min divergence: -0.71E+00 at (18,18,10)
       Max VN number:   0.38E+00 at (21,22,1)
       Total Heat Release Rate:            140.848 kW
       Radiation Loss to Boundaries:       -36.395 kW
 
       Time Step     2700   June 24, 2025  18:11:46
       Step Size:    0.881E-02 s, Total Time:      33.20 s
       Pressure Iterations: 1
       Maximum Velocity Error:  0.13E-01 on Mesh 1 at (14,18,2)
       Maximum Pressure Error:  0.25E+02 on Mesh 1 at (18,20,1)
       ---------------------------------------------------------------
       Max CFL number:  0.90E+00 at (30,20,27)
       Max divergence:  0.31E+01 at (18,19,4)
       Min divergence: -0.64E+00 at (21,18,1)
       Max VN number:   0.61E+00 at (21,22,1)
       Total Heat Release Rate:            144.780 kW
       Radiation Loss to Boundaries:       -36.876 kW
 
       Time Step     2800   June 24, 2025  18:11:53
       Step Size:    0.881E-02 s, Total Time:      34.08 s
       Pressure Iterations: 1
       Maximum Velocity Error:  0.56E-02 on Mesh 1 at (14,18,5)
       Maximum Pressure Error:  0.23E+02 on Mesh 1 at (21,23,1)
       ---------------------------------------------------------------
       Max CFL number:  0.95E+00 at (30,20,27)
       Max divergence:  0.26E+01 at (15,18,4)
       Min divergence: -0.90E+00 at (21,20,5)
       Max VN number:   0.55E+00 at (23,23,1)
       Total Heat Release Rate:            142.966 kW
       Radiation Loss to Boundaries:       -36.724 kW
 
       Time Step     2900   June 24, 2025  18:12:01
       Step Size:    0.881E-02 s, Total Time:      34.96 s
       Pressure Iterations: 1
       Maximum Velocity Error:  0.32E-02 on Mesh 1 at (17,20,1)
       Maximum Pressure Error:  0.18E+02 on Mesh 1 at (18,21,1)
       ---------------------------------------------------------------
       Max CFL number:  0.95E+00 at (30,19,27)
       Max divergence:  0.26E+01 at (18,21,3)
       Min divergence: -0.67E+00 at (19,22,3)
       Max VN number:   0.34E+00 at (26,20,30)
       Total Heat Release Rate:            144.793 kW
       Radiation Loss to Boundaries:       -37.075 kW
 
       Time Step     3000   June 24, 2025  18:12:09
       Step Size:    0.881E-02 s, Total Time:      35.84 s
       Pressure Iterations: 1
       Maximum Velocity Error:  0.43E-02 on Mesh 1 at (17,21,2)
       Maximum Pressure Error:  0.11E+02 on Mesh 1 at (20,23,1)
       ---------------------------------------------------------------
       Max CFL number:  0.94E+00 at (30,21,27)
       Max divergence:  0.21E+01 at (16,23,3)
       Min divergence: -0.58E+00 at (20,21,6)
       Max VN number:   0.57E+00 at (19,22,1)
       Total Heat Release Rate:            141.056 kW
       Radiation Loss to Boundaries:       -36.018 kW
 
       Time Step     3100   June 24, 2025  18:12:18
       Step Size:    0.881E-02 s, Total Time:      36.72 s
       Pressure Iterations: 1
       Maximum Velocity Error:  0.33E-02 on Mesh 1 at (16,22,4)
       Maximum Pressure Error:  0.13E+02 on Mesh 1 at (16,18,1)
       ---------------------------------------------------------------
       Max CFL number:  0.96E+00 at (30,21,27)
       Max divergence:  0.28E+01 at (14,18,2)
       Min divergence: -0.80E+00 at (20,22,1)
       Max VN number:   0.50E+00 at (20,22,1)
       Total Heat Release Rate:            145.323 kW
       Radiation Loss to Boundaries:       -36.216 kW
 
       Time Step     3200   June 24, 2025  18:12:25
       Step Size:    0.881E-02 s, Total Time:      37.60 s
       Pressure Iterations: 1
       Maximum Velocity Error:  0.10E-01 on Mesh 1 at (17,22,1)
       Maximum Pressure Error:  0.12E+02 on Mesh 1 at (21,24,1)
       ---------------------------------------------------------------
       Max CFL number:  0.90E+00 at (30,21,27)
       Max divergence:  0.34E+01 at (17,20,6)
       Min divergence: -0.84E+00 at (15,20,8)
       Max VN number:   0.40E+00 at (22,23,1)
       Total Heat Release Rate:            145.387 kW
       Radiation Loss to Boundaries:       -36.188 kW
 
       Time Step     3300   June 24, 2025  18:12:34
       Step Size:    0.881E-02 s, Total Time:      38.48 s
       Pressure Iterations: 1
       Maximum Velocity Error:  0.51E-02 on Mesh 1 at (17,20,4)
       Maximum Pressure Error:  0.15E+02 on Mesh 1 at (20,19,1)
       ---------------------------------------------------------------
       Max CFL number:  0.93E+00 at (30,20,27)
       Max divergence:  0.21E+01 at (18,19,6)
       Min divergence: -0.69E+00 at (20,19,1)
       Max VN number:   0.52E+00 at (30,23,29)
       Total Heat Release Rate:            144.301 kW
       Radiation Loss to Boundaries:       -35.667 kW
 
       Time Step     3400   June 24, 2025  18:12:42
       Step Size:    0.881E-02 s, Total Time:      39.36 s
       Pressure Iterations: 1
       Maximum Velocity Error:  0.72E-02 on Mesh 1 at (16,22,1)
       Maximum Pressure Error:  0.40E+02 on Mesh 1 at (16,23,1)
       ---------------------------------------------------------------
       Max CFL number:  0.89E+00 at (30,16,28)
       Max divergence:  0.36E+01 at (18,19,4)
       Min divergence: -0.11E+01 at (17,23,8)
       Max VN number:   0.34E+00 at (20,17,1)
       Total Heat Release Rate:            143.241 kW
       Radiation Loss to Boundaries:       -35.766 kW
 
       Time Step     3500   June 24, 2025  18:12:49
       Step Size:    0.881E-02 s, Total Time:      40.24 s
       Pressure Iterations: 1
       Maximum Velocity Error:  0.21E-01 on Mesh 1 at (16,22,2)
       Maximum Pressure Error:  0.52E+02 on Mesh 1 at (16,23,1)
       ---------------------------------------------------------------
       Max CFL number:  0.91E+00 at (30,19,27)
       Max divergence:  0.35E+01 at (16,23,2)
       Min divergence: -0.10E+01 at (20,20,1)
       Max VN number:   0.66E+00 at (30,24,29)
       Total Heat Release Rate:            154.455 kW
       Radiation Loss to Boundaries:       -39.233 kW
 
       Time Step     3600   June 24, 2025  18:12:57
       Step Size:    0.881E-02 s, Total Time:      41.12 s
       Pressure Iterations: 1
       Maximum Velocity Error:  0.28E-02 on Mesh 1 at (17,19,2)
       Maximum Pressure Error:  0.10E+02 on Mesh 1 at (22,16,1)
       ---------------------------------------------------------------
       Max CFL number:  0.92E+00 at (30,21,27)
       Max divergence:  0.25E+01 at (15,18,2)
       Min divergence: -0.80E+00 at (22,17,1)
       Max VN number:   0.48E+00 at (20,22,1)
       Total Heat Release Rate:            142.621 kW
       Radiation Loss to Boundaries:       -36.249 kW
 
       Time Step     3700   June 24, 2025  18:13:05
       Step Size:    0.881E-02 s, Total Time:      42.00 s
       Pressure Iterations: 1
       Maximum Velocity Error:  0.32E-02 on Mesh 1 at (17,21,4)
       Maximum Pressure Error:  0.14E+02 on Mesh 1 at (30,17,22)
       ---------------------------------------------------------------
       Max CFL number:  0.92E+00 at (30,25,29)
       Max divergence:  0.28E+01 at (15,18,2)
       Min divergence: -0.11E+01 at (19,22,1)
       Max VN number:   0.50E+00 at (19,22,1)
       Total Heat Release Rate:            143.575 kW
       Radiation Loss to Boundaries:       -35.874 kW
 
       Time Step     3800   June 24, 2025  18:13:13
       Step Size:    0.881E-02 s, Total Time:      42.88 s
       Pressure Iterations: 1
       Maximum Velocity Error:  0.37E-02 on Mesh 1 at (17,22,5)
       Maximum Pressure Error:  0.11E+02 on Mesh 1 at (20,23,1)
       ---------------------------------------------------------------
       Max CFL number:  0.90E+00 at (30,16,30)
       Max divergence:  0.22E+01 at (15,19,6)
       Min divergence: -0.83E+00 at (17,20,8)
       Max VN number:   0.47E+00 at (22,19,1)
       Total Heat Release Rate:            142.423 kW
       Radiation Loss to Boundaries:       -34.674 kW
 
       Time Step     3900   June 24, 2025  18:13:21
       Step Size:    0.881E-02 s, Total Time:      43.76 s
       Pressure Iterations: 1
       Maximum Velocity Error:  0.45E-02 on Mesh 1 at (17,21,2)
       Maximum Pressure Error:  0.13E+02 on Mesh 1 at (20,22,1)
       ---------------------------------------------------------------
       Max CFL number:  0.98E+00 at (30,20,27)
       Max divergence:  0.23E+01 at (14,23,1)
       Min divergence: -0.63E+00 at (21,18,6)
       Max VN number:   0.47E+00 at (19,19,1)
       Total Heat Release Rate:            147.687 kW
       Radiation Loss to Boundaries:       -36.695 kW
 
       Time Step     4000   June 24, 2025  18:13:29
       Step Size:    0.881E-02 s, Total Time:      44.64 s
       Pressure Iterations: 1
       Maximum Velocity Error:  0.49E-02 on Mesh 1 at (17,22,5)
       Maximum Pressure Error:  0.15E+02 on Mesh 1 at (26,21,30)
       ---------------------------------------------------------------
       Max CFL number:  0.92E+00 at (30,22,27)
       Max divergence:  0.19E+01 at (18,18,4)
       Min divergence: -0.66E+00 at (18,21,9)
       Max VN number:   0.52E+00 at (21,23,1)
       Total Heat Release Rate:            143.019 kW
       Radiation Loss to Boundaries:       -35.589 kW
 
       Time Step     4100   June 24, 2025  18:13:37
       Step Size:    0.881E-02 s, Total Time:      45.52 s
       Pressure Iterations: 1
       Maximum Velocity Error:  0.57E-02 on Mesh 1 at (17,21,1)
       Maximum Pressure Error:  0.14E+02 on Mesh 1 at (28,26,30)
       ---------------------------------------------------------------
       Max CFL number:  0.91E+00 at (30,23,27)
       Max divergence:  0.21E+01 at (14,23,2)
       Min divergence: -0.77E+00 at (19,18,1)
       Max VN number:   0.39E+00 at (20,23,1)
       Total Heat Release Rate:            143.289 kW
       Radiation Loss to Boundaries:       -35.168 kW
 
       Time Step     4200   June 24, 2025  18:13:45
       Step Size:    0.881E-02 s, Total Time:      46.40 s
       Pressure Iterations: 1
       Maximum Velocity Error:  0.65E-02 on Mesh 1 at (17,20,1)
       Maximum Pressure Error:  0.20E+02 on Mesh 1 at (18,19,1)
       ---------------------------------------------------------------
       Max CFL number:  0.91E+00 at (30,21,27)
       Max divergence:  0.29E+01 at (14,23,2)
       Min divergence: -0.61E+00 at (20,20,1)
       Max VN number:   0.43E+00 at (26,24,30)
       Total Heat Release Rate:            144.281 kW
       Radiation Loss to Boundaries:       -35.477 kW
 
       Time Step     4300   June 24, 2025  18:13:53
       Step Size:    0.881E-02 s, Total Time:      47.28 s
       Pressure Iterations: 1
       Maximum Velocity Error:  0.79E-02 on Mesh 1 at (17,21,1)
       Maximum Pressure Error:  0.15E+02 on Mesh 1 at (20,19,1)
       ---------------------------------------------------------------
       Max CFL number:  0.89E+00 at (30,22,27)
       Max divergence:  0.49E+01 at (15,23,1)
       Min divergence: -0.11E+01 at (19,20,1)
       Max VN number:   0.55E+00 at (23,25,1)
       Total Heat Release Rate:            143.651 kW
       Radiation Loss to Boundaries:       -35.883 kW
 
       Time Step     4400   June 24, 2025  18:14:01
       Step Size:    0.881E-02 s, Total Time:      48.16 s
       Pressure Iterations: 1
       Maximum Velocity Error:  0.63E-02 on Mesh 1 at (17,22,3)
       Maximum Pressure Error:  0.12E+02 on Mesh 1 at (17,23,2)
       ---------------------------------------------------------------
       Max CFL number:  0.94E+00 at (30,22,27)
       Max divergence:  0.29E+01 at (17,23,5)
       Min divergence: -0.77E+00 at (20,20,1)
       Max VN number:   0.56E+00 at (20,20,1)
       Total Heat Release Rate:            143.327 kW
       Radiation Loss to Boundaries:       -35.637 kW
 
       Time Step     4500   June 24, 2025  18:14:09
       Step Size:    0.881E-02 s, Total Time:      49.05 s
       Pressure Iterations: 1
       Maximum Velocity Error:  0.30E-02 on Mesh 1 at (17,20,5)
       Maximum Pressure Error:  0.12E+02 on Mesh 1 at (30,21,24)
       ---------------------------------------------------------------
       Max CFL number:  0.92E+00 at (30,21,27)
       Max divergence:  0.28E+01 at (18,21,4)
       Min divergence: -0.64E+00 at (20,19,9)
       Max VN number:   0.51E+00 at (30,19,29)
       Total Heat Release Rate:            144.682 kW
       Radiation Loss to Boundaries:       -36.715 kW
 
       Time Step     4600   June 24, 2025  18:14:17
       Step Size:    0.881E-02 s, Total Time:      49.93 s
       Pressure Iterations: 1
       Maximum Velocity Error:  0.15E-01 on Mesh 1 at (17,21,5)
       Maximum Pressure Error:  0.12E+02 on Mesh 1 at (30,16,26)
       ---------------------------------------------------------------
       Max CFL number:  0.94E+00 at (30,18,27)
       Max divergence:  0.25E+01 at (16,21,6)
       Min divergence: -0.66E+00 at (18,18,10)
       Max VN number:   0.42E+00 at (22,18,1)
       Total Heat Release Rate:            143.125 kW
       Radiation Loss to Boundaries:       -35.176 kW
 
       Time Step     4700   June 24, 2025  18:14:25
       Step Size:    0.881E-02 s, Total Time:      50.81 s
       Pressure Iterations: 1
       Maximum Velocity Error:  0.40E-02 on Mesh 1 at (17,21,1)
       Maximum Pressure Error:  0.11E+02 on Mesh 1 at (30,15,30)
       ---------------------------------------------------------------
       Max CFL number:  0.92E+00 at (30,16,30)
       Max divergence:  0.26E+01 at (17,23,1)
       Min divergence: -0.52E+00 at (22,23,9)
       Max VN number:   0.43E+00 at (30,16,28)
       Total Heat Release Rate:            146.979 kW
       Radiation Loss to Boundaries:       -36.894 kW
 
       Time Step     4800   June 24, 2025  18:14:33
       Step Size:    0.881E-02 s, Total Time:      51.69 s
       Pressure Iterations: 1
       Maximum Velocity Error:  0.31E-02 on Mesh 1 at (17,18,5)
       Maximum Pressure Error:  0.14E+02 on Mesh 1 at (20,21,1)
       ---------------------------------------------------------------
       Max CFL number:  0.90E+00 at (30,20,27)
       Max divergence:  0.17E+01 at (14,20,6)
       Min divergence: -0.47E+00 at (19,17,3)
       Max VN number:   0.37E+00 at (19,21,1)
       Total Heat Release Rate:            138.082 kW
       Radiation Loss to Boundaries:       -34.102 kW
 
       Time Step     4900   June 24, 2025  18:14:40
       Step Size:    0.881E-02 s, Total Time:      52.57 s
       Pressure Iterations: 1
       Maximum Velocity Error:  0.69E-02 on Mesh 1 at (17,22,1)
       Maximum Pressure Error:  0.14E+02 on Mesh 1 at (19,18,1)
       ---------------------------------------------------------------
       Max CFL number:  0.92E+00 at (30,20,27)
       Max divergence:  0.31E+01 at (18,21,3)
       Min divergence: -0.54E+00 at (21,18,5)
       Max VN number:   0.39E+00 at (21,24,1)
       Total Heat Release Rate:            141.212 kW
       Radiation Loss to Boundaries:       -34.879 kW
 
       Time Step     5000   June 24, 2025  18:14:49
       Step Size:    0.881E-02 s, Total Time:      53.45 s
       Pressure Iterations: 1
       Maximum Velocity Error:  0.91E-02 on Mesh 1 at (17,22,4)
       Maximum Pressure Error:  0.22E+02 on Mesh 1 at (30,21,26)
       ---------------------------------------------------------------
       Max CFL number:  0.96E+00 at (30,19,27)
       Max divergence:  0.26E+01 at (17,23,4)
       Min divergence: -0.11E+01 at (16,23,11)
       Max VN number:   0.30E+00 at (22,19,1)
       Total Heat Release Rate:            140.195 kW
       Radiation Loss to Boundaries:       -34.899 kW
 
       Time Step     5100   June 24, 2025  18:14:57
       Step Size:    0.881E-02 s, Total Time:      54.33 s
       Pressure Iterations: 1
       Maximum Velocity Error:  0.54E-02 on Mesh 1 at (17,22,3)
       Maximum Pressure Error:  0.13E+02 on Mesh 1 at (19,21,1)
       ---------------------------------------------------------------
       Max CFL number:  0.93E+00 at (30,17,27)
       Max divergence:  0.29E+01 at (15,23,2)
       Min divergence: -0.65E+00 at (20,22,1)
       Max VN number:   0.44E+00 at (20,22,1)
       Total Heat Release Rate:            142.306 kW
       Radiation Loss to Boundaries:       -35.724 kW
 
       Time Step     5200   June 24, 2025  18:15:05
       Step Size:    0.881E-02 s, Total Time:      55.21 s
       Pressure Iterations: 1
       Maximum Velocity Error:  0.42E-02 on Mesh 1 at (17,21,3)
       Maximum Pressure Error:  0.16E+02 on Mesh 1 at (14,23,1)
       ---------------------------------------------------------------
       Max CFL number:  0.95E+00 at (30,22,27)
       Max divergence:  0.27E+01 at (16,22,6)
       Min divergence: -0.10E+01 at (20,20,1)
       Max VN number:   0.73E+00 at (19,19,1)
       Total Heat Release Rate:            149.619 kW
       Radiation Loss to Boundaries:       -36.618 kW
 
       Time Step     5300   June 24, 2025  18:15:12
       Step Size:    0.881E-02 s, Total Time:      56.09 s
       Pressure Iterations: 1
       Maximum Velocity Error:  0.38E-02 on Mesh 1 at (17,21,2)
       Maximum Pressure Error:  0.87E+01 on Mesh 1 at (18,15,1)
       ---------------------------------------------------------------
       Max CFL number:  0.91E+00 at (30,23,27)
       Max divergence:  0.22E+01 at (17,23,2)
       Min divergence: -0.35E+00 at (16,16,1)
       Max VN number:   0.47E+00 at (21,20,1)
       Total Heat Release Rate:            145.212 kW
       Radiation Loss to Boundaries:       -35.893 kW
 
       Time Step     5400   June 24, 2025  18:15:20
       Step Size:    0.881E-02 s, Total Time:      56.97 s
       Pressure Iterations: 1
       Maximum Velocity Error:  0.47E-02 on Mesh 1 at (13,20,2)
       Maximum Pressure Error:  0.11E+02 on Mesh 1 at (18,14,1)
       ---------------------------------------------------------------
       Max CFL number:  0.94E+00 at (30,24,27)
       Max divergence:  0.34E+01 at (17,23,4)
       Min divergence: -0.79E+00 at (17,18,7)
       Max VN number:   0.44E+00 at (21,20,1)
       Total Heat Release Rate:            147.507 kW
       Radiation Loss to Boundaries:       -36.835 kW
 
       Time Step     5500   June 24, 2025  18:15:28
       Step Size:    0.881E-02 s, Total Time:      57.85 s
       Pressure Iterations: 1
       Maximum Velocity Error:  0.60E-02 on Mesh 1 at (17,22,2)
       Maximum Pressure Error:  0.26E+02 on Mesh 1 at (18,23,1)
       ---------------------------------------------------------------
       Max CFL number:  0.89E+00 at (30,16,30)
       Max divergence:  0.27E+01 at (18,21,2)
       Min divergence: -0.57E+00 at (18,18,9)
       Max VN number:   0.45E+00 at (19,22,1)
       Total Heat Release Rate:            143.245 kW
       Radiation Loss to Boundaries:       -34.264 kW
 
       Time Step     5600   June 24, 2025  18:15:36
       Step Size:    0.881E-02 s, Total Time:      58.73 s
       Pressure Iterations: 1
       Maximum Velocity Error:  0.75E-02 on Mesh 1 at (14,22,3)
       Maximum Pressure Error:  0.15E+02 on Mesh 1 at (19,23,1)
       ---------------------------------------------------------------
       Max CFL number:  0.89E+00 at (30,20,27)
       Max divergence:  0.26E+01 at (17,18,3)
       Min divergence: -0.59E+00 at (19,24,5)
       Max VN number:   0.39E+00 at (20,21,1)
       Total Heat Release Rate:            144.603 kW
       Radiation Loss to Boundaries:       -35.251 kW
 
       Time Step     5700   June 24, 2025  18:15:44
       Step Size:    0.881E-02 s, Total Time:      59.61 s
       Pressure Iterations: 1
       Maximum Velocity Error:  0.66E-02 on Mesh 1 at (16,18,5)
       Maximum Pressure Error:  0.14E+02 on Mesh 1 at (30,24,24)
       ---------------------------------------------------------------
       Max CFL number:  0.93E+00 at (30,22,27)
       Max divergence:  0.22E+01 at (15,22,6)
       Min divergence: -0.57E+00 at (23,18,7)
       Max VN number:   0.45E+00 at (20,24,1)
       Total Heat Release Rate:            143.966 kW
       Radiation Loss to Boundaries:       -34.766 kW
 
       Time Step     5745   June 24, 2025  18:15:48
       Step Size:    0.105E-02 s, Total Time:      60.00 s
       Pressure Iterations: 1
       Maximum Velocity Error:  0.12E-01 on Mesh 1 at (16,22,2)
       Maximum Pressure Error:  0.12E+04 on Mesh 1 at (16,24,1)
       ---------------------------------------------------------------
       Max CFL number:  0.11E+00 at (30,25,30)
       Max divergence:  0.48E+01 at (16,17,1)
       Min divergence: -0.51E+00 at (17,20,8)
       Max VN number:   0.53E-01 at (16,24,1)
       Total Heat Release Rate:            154.453 kW
       Radiation Loss to Boundaries:       -36.647 kW
 


 DEVICE Activation Times

         1    timer                     T          20.003


 Time Stepping Wall Clock Time (s):      456.827
 Total Elapsed Wall Clock Time (s):      458.568

STOP: FDS completed successfully (CHID: supply_exhaust_vents)
